 Case_ID  AeroDyn15  AeroDyn15   DLC    DLC      DLC     ElastoDyn      ElastoDyn           ElastoDyn           ElastoDyn       ElastoDyn      ElastoDyn       Fst    Fst    HydroDyn  HydroDyn   HydroDyn   HydroDyn  HydroDyn                        InflowWind                                             InflowWind                         InflowWind    InflowWind      InflowWind      InflowWind   ServoDyn   ServoDyn   ServoDyn 
          AFAeroMod   WakeMod   Label  MeanWS  WindSeed   Azimuth        BlPitch1            BlPitch2            BlPitch3         NacYaw        RotSpeed       TMax  TStart  WaveDir    WaveHs   WavePkShp  WaveSeed1   WaveTp                        FileName_BTS                                           Filename_Uni                      PropagationDir  RefHt_Uni       RefLength        WindType   TPitManS1  TPitManS2  TPitManS3 
    0         2          1       12.1   -1.0      1          0      3.8455816114387122  3.8455816114387122  3.8455816114387122     0.0     4.999999999999999  800.0   0.0      0.0       8.0        0.0         0        2.0     /home/athulsun/WEIS/examples/14_level2ccd/NL_Step.wnd  /home/athulsun/WEIS/examples/14_level2ccd/NL_Step.wnd       0.0          150.0     241.94015924166422      2          9999       9999       9999   
