 Case_ID  AeroDyn15  AeroDyn15   DLC    DLC       DLC      ElastoDyn      ElastoDyn           ElastoDyn           ElastoDyn       ElastoDyn      ElastoDyn       Fst     Fst    HydroDyn  HydroDyn   HydroDyn   HydroDyn  HydroDyn                                                   InflowWind                                                                                                   InflowWind                                                    InflowWind    InflowWind      InflowWind      InflowWind   ServoDyn   ServoDyn   ServoDyn 
          AFAeroMod   WakeMod   Label  MeanWS   WindSeed    Azimuth        BlPitch1            BlPitch2            BlPitch3         NacYaw        RotSpeed       TMax   TStart  WaveDir    WaveHs   WavePkShp  WaveSeed1   WaveTp                                                   FileName_BTS                                                                                                 Filename_Uni                                                 PropagationDir  RefHt_Uni       RefLength        WindType   TPitManS1  TPitManS2  TPitManS3 
    0         2          1       1.1    15.0   1501552846      0      11.503330324803295  11.503330324803295  11.503330324803295     0.0     7.499235996762778  1000.0  100.0     0.0       8.0        0.0     304524126    2.0     /home/athulsun/WEIS/examples/14_level2ccd/outputs/TD_test/turb/wind/lin_NTM_U15.000000_Seed1501552846.0.bts  /home/athulsun/WEIS/examples/14_level2ccd/outputs/TD_test/turb/wind/lin_NTM_U15.000000_Seed1501552846.0.bts       0.0          150.0     241.94015924166422      3          9999       9999       9999   
